Check Keywords "Warn"
Header
  Mesh DB "." "square"
End

Simulation
  Max Output Level = 10
  Coordinate System = "Cartesian"

  Simulation Type = Steady
  Output Intervals = 1
  Steady State Max Iterations = 1

  Post File = case_default_solver.vtu
  Ascii Output = True

  Mesh Levels = 1 ! This sets the mesh refinement level. level 2 splits each line into two lines -> doubles the complexity
End

Body 1
  Equation = 1
  Body Force = 1
  Material = 1
End

Equation 1
  Name = "Heat"
  Active Solvers(1) = 1
End

Body Force 1
  Heat Source = -100

!  Temp Upper Limit = Variable "Coordinate 1"
!    Real MATC "sin(4*pi*tx)"
  Temp Upper Limit = Real 1.5
!  Temp Lower Limit = Real 0.0
  

End


Material 1
  Name = "Ideal"
  diffusion coefficient = real 1.0
End 


Solver 1
  Equation = ModelPDE
  Variable = Temp
  Procedure = "MyPDE2" "MPRGPSolver"
  My linear solver = Logical False


  Apply Limiter = Logical True
  Limiter Load Tolerance = Real 1.0e-6
  Limiter Value Tolerance = Real 1.0e-8

  Steady State Convergence Tolerance = 1.0e-5

  Nonlinear System Convergence Tolerance = 1.0e-5
  Nonlinear System Max Iterations = 30
  Nonlinear System Newton After Iterations = 3
  Nonlinear System Newton After Tolerance = 1.0e-5
  Nonlinear System Relaxation Factor = 1
  Nonlinear System Convergence Measure = solution   

  Linear System Solver = Iterative
  Linear System Iterative Method = BiCGStab
  Linear System Max Iterations = 500
  Linear System Convergence Tolerance = 1.0e-8
  Linear System Preconditioning = ILU1
  Linear System ILUT Tolerance = 1.0e-3
  Linear System Abort Not Converged = False
  Linear System Residual Output = 10
  Linear System Precondition Recompute = 1

  Linear System Save = True


End 


Boundary Condition 1
  Target Boundaries = 1
!  Temp = Real -1

  Temp = Variable "Coordinate 1", "Coordinate 2"
   Real MATC "-10*tx(0)"
End





